/*--------------------------------*- C++ -*----------------------------------*\
| =========                 |                                                 |
| \\      /  F ield         | OpenFOAM: The Open Source CFD Toolbox           |
|  \\    /   O peration     | Version:  2406                                  |
|   \\  /    A nd           | Website:  www.openfoam.com                      |
|    \\/     M anipulation  |                                                 |
\*---------------------------------------------------------------------------*/
FoamFile
{
    version     2.0;
    format      ascii;
    arch        "LSB;label=32;scalar=64";
    class       polyBoundaryMesh;
    location    "constant/polyMesh";
    object      boundary;
}
// * * * * * * * * * * * * * * * * * * * * * * * * * * * * * * * * * * * * * //


3
(
moving1_inlet
{
    type patch;
    nFaces 1264;
    startFace 271514;
}

moving1_coupled
{
    type patch;
    nFaces 2296;
    startFace 272778;
}

moving1_wall
{
    type wall;
    nFaces 7614;
    startFace 275074;
}

)


// ************************************************************************* //
