/*--------------------------------*- C++ -*----------------------------------*\
| =========                 |                                                 |
| \\      /  F ield         | OpenFOAM: The Open Source CFD Toolbox           |
|  \\    /   O peration     | Version:  2406                                  |
|   \\  /    A nd           | Website:  www.openfoam.com                      |
|    \\/     M anipulation  |                                                 |
\*---------------------------------------------------------------------------*/
FoamFile
{
    version     2.0;
    format      ascii;
    arch        "LSB;label=32;scalar=64";
    class       dictionary;
    location    "constant/polyMesh";
    object      meshMetaDict;
}
// * * * * * * * * * * * * * * * * * * * * * * * * * * * * * * * * * * * * * //

surfaceFile     "constant/triSurface/stationary.fms";

surfaceMeta
{
    nPoints         28131;
    nFacets         55859;
    nPatches        3;
    nFeatureEdges   848;
    patches
    {
        stationary_wall
        {
            type            empty;
            nFacets         38210;
        }
        outlet
        {
            type            empty;
            nFacets         3501;
        }
        stationary_coupled
        {
            type            empty;
            nFacets         14148;
        }
    }
    pointSubsets
    {
    }
    facetSubsets
    {
    }
    featureEdgeSubsets
    {
    }
}
