/*--------------------------------*- C++ -*----------------------------------*\
| =========                 |                                                |
| \\      /  F ield         | cfMesh: A library for mesh generation          |
|  \\    /   O peration     |                                                |
|   \\  /    A nd           | Author: Franjo Juretic                         |
|    \\/     M anipulation  | E-mail: franjo.juretic@c-fields.com            |
\*---------------------------------------------------------------------------*/
FoamFile
{
    version   2.0;
    format    ascii;
    class     dictionary;
    location  "system";
    object    meshDict;
}

// * * * * * * * * * * * * * * * * * * * * * * * * * * * * * * * * * * * * * //

surfaceFile "constant/triSurface/stationary.fms";

minCellSize 30.0;

maxCellSize 30.0;

boundaryLayers
{
    nLayers 7;

    thicknessRatio 1.2;
   	
	patchBoundaryLayers
    {
		"stationary_coupled"
        {
            nLayers 0;
			thicknessRatio 1;
			maxFirstLayerThickness 0;
        }
		"outlet"
        {
            nLayers 0;
			thicknessRatio 1;
			maxFirstLayerThickness 0;
        }
	}   
}

renameBoundary
{
    
    newPatchNames
    {
        "stationary_coupled"
        {
            type    patch;
            newName moving1_coupled;
        }

        "outlet"
        {
            type    patch;
            newName moving1_inlet;
        }
		
		"stationary_wall"
        {
            type    wall;
            newName moving1_wall;
        }
    }
}

// ************************************************************************* //
