/*--------------------------------*- C++ -*----------------------------------*\
| =========                 |                                                 |
| \\      /  F ield         | OpenFOAM: The Open Source CFD Toolbox           |
|  \\    /   O peration     | Version:  2406                                  |
|   \\  /    A nd           | Website:  www.openfoam.com                      |
|    \\/     M anipulation  |                                                 |
\*---------------------------------------------------------------------------*/
FoamFile
{
    version     2.0;
    format      ascii;
    arch        "LSB;label=32;scalar=64";
    class       dictionary;
    location    "constant/polyMesh";
    object      meshMetaDict;
}
// * * * * * * * * * * * * * * * * * * * * * * * * * * * * * * * * * * * * * //

surfaceFile     "./constant/triSurface/moving1.fms";

surfaceMeta
{
    nPoints         282;
    nFacets         560;
    nPatches        3;
    nFeatureEdges   282;
    patches
    {
        moving1_wall
        {
            type            empty;
            nFacets         282;
        }
        moving1_coupled
        {
            type            empty;
            nFacets         139;
        }
        moving1_inlet
        {
            type            empty;
            nFacets         139;
        }
    }
    pointSubsets
    {
    }
    facetSubsets
    {
    }
    featureEdgeSubsets
    {
    }
}
