/*--------------------------------*- C++ -*----------------------------------*\
| =========                 |                                                 |
| \\      /  F ield         | OpenFOAM: The Open Source CFD Toolbox           |
|  \\    /   O peration     | Version:  2406                                  |
|   \\  /    A nd           | Website:  www.openfoam.com                      |
|    \\/     M anipulation  |                                                 |
\*---------------------------------------------------------------------------*/
FoamFile
{
    version     2.0;
    format      ascii;
    arch        "LSB;label=32;scalar=64";
    class       volScalarField;
    location    "0";
    object      nut;
}
// * * * * * * * * * * * * * * * * * * * * * * * * * * * * * * * * * * * * * //

dimensions      [0 2 -1 0 0 0 0];

internalField   uniform 0;

boundaryField
{
	#includeEtc "caseDicts/setConstraintTypes"

    outlet
    {
        type            inletOutlet;
        inletValue      uniform 0;
        value           uniform 0;
    }
    stationary_wall
    {
        type            nutkWallFunction;
        value           uniform 0;
    }
    moving1_inlet
    {
        type            fixedValue;
        value           uniform 0;
    }
    moving1_wall
    {
        type            nutkWallFunction;
        value           uniform 0;
    }
    moving2_inlet
    {
        type            fixedValue;
        value           uniform 0;
    }
    moving2_wall
    {
        type            nutkWallFunction;
        value           uniform 0;
    }
    moving_blockage
    {
        type            nutkWallFunction;
        value           uniform 0;
    }
    stationary_blockage
    {
        type            nutkWallFunction;
        value           uniform 0;
    }
}
